Version 4
SHEET 1 1636 776
WIRE -496 -16 -576 -16
WIRE -576 32 -576 -16
WIRE -576 160 -576 112
WIRE -496 160 -576 160
WIRE -496 176 -496 160
WIRE -576 208 -576 160
WIRE -576 368 -576 288
WIRE -496 368 -576 368
FLAG 1616 416 0
FLAG 432 272 0
FLAG 1024 128 0
FLAG -496 176 0
FLAG -496 368 vee
FLAG -496 -16 vcc
SYMBOL res 112 128 R90
WINDOW 0 0 56 VBottom 2
WINDOW 3 32 56 VTop 2
SYMATTR InstName R1
SYMBOL res 336 -176 R180
WINDOW 0 36 76 Left 2
WINDOW 3 36 40 Left 2
SYMATTR InstName R2
SYMBOL res 272 512 R180
WINDOW 0 36 76 Left 2
WINDOW 3 36 40 Left 2
SYMATTR InstName R3
SYMBOL res 288 768 R180
WINDOW 0 36 76 Left 2
WINDOW 3 36 40 Left 2
SYMATTR InstName R4
SYMBOL res 720 256 R180
WINDOW 0 36 76 Left 2
WINDOW 3 36 40 Left 2
SYMATTR InstName R5
SYMBOL res 704 528 R180
WINDOW 0 36 76 Left 2
WINDOW 3 36 40 Left 2
SYMATTR InstName R6
SYMBOL res 720 784 R180
WINDOW 0 36 76 Left 2
WINDOW 3 36 40 Left 2
SYMATTR InstName R7
SYMBOL res 1024 -256 R180
WINDOW 0 36 76 Left 2
WINDOW 3 36 40 Left 2
SYMATTR InstName R8
SYMBOL res 1040 80 R180
WINDOW 0 36 76 Left 2
WINDOW 3 36 40 Left 2
SYMATTR InstName R9
SYMBOL res 1024 -128 R180
WINDOW 0 36 76 Left 2
WINDOW 3 36 40 Left 2
SYMATTR InstName R10
SYMBOL res 1024 -32 R180
WINDOW 0 36 76 Left 2
WINDOW 3 36 40 Left 2
SYMATTR InstName R11
SYMBOL res 1632 384 R180
WINDOW 0 36 76 Left 2
WINDOW 3 36 40 Left 2
SYMATTR InstName RL
SYMATTR Value 220
SYMBOL npn 176 96 R0
SYMATTR InstName Q1
SYMBOL npn 1408 32 R0
SYMATTR InstName Q3
SYMBOL pnp 800 -112 R180
SYMATTR InstName Q2
SYMBOL pnp 1296 480 M180
SYMATTR InstName Q4
SYMBOL polcap 384 64 R0
SYMATTR InstName C1
SYMBOL polcap 864 -32 R0
SYMATTR InstName C2
SYMBOL voltage -576 16 R0
WINDOW 123 0 0 Left 0
WINDOW 39 0 0 Left 0
SYMATTR InstName V1
SYMATTR Value 10
SYMBOL voltage -576 192 R0
WINDOW 3 24 44 Left 2
WINDOW 123 0 0 Left 0
WINDOW 39 0 0 Left 0
SYMATTR InstName V2
SYMATTR Value 10
