Version 4
SHEET 1 1760 876
WIRE 672 -464 672 -496
WIRE 672 -464 464 -464
WIRE 976 -464 672 -464
WIRE 1168 -464 976 -464
WIRE 976 -400 976 -464
WIRE 464 -384 464 -464
WIRE 0 -368 -80 -368
WIRE -80 -320 -80 -368
WIRE 976 -288 976 -320
WIRE 464 -240 464 -304
WIRE 464 -240 240 -240
WIRE 624 -240 464 -240
WIRE -80 -192 -80 -240
WIRE 0 -192 -80 -192
WIRE 768 -192 688 -192
WIRE 976 -192 976 -208
WIRE 976 -192 768 -192
WIRE 0 -176 0 -192
WIRE 976 -176 976 -192
WIRE -80 -144 -80 -192
WIRE 768 -112 768 -192
WIRE 976 -64 976 -96
WIRE -80 16 -80 -64
WIRE 0 16 -80 16
WIRE 768 48 768 -48
WIRE 976 48 976 16
WIRE 976 48 768 48
WIRE 240 80 240 -240
WIRE 976 80 976 48
WIRE 1168 112 1168 -464
WIRE -64 128 -96 128
WIRE 32 128 -64 128
WIRE 176 128 112 128
WIRE 624 160 624 -144
WIRE 1104 160 624 160
WIRE -96 192 -96 128
WIRE 624 208 624 160
WIRE 1168 256 1168 208
WIRE 1408 256 1168 256
WIRE 1472 256 1408 256
WIRE 1488 256 1472 256
WIRE 1168 304 1168 256
WIRE 1408 304 1408 256
WIRE -96 336 -96 272
WIRE 240 352 240 176
WIRE 352 352 240 352
WIRE 624 352 624 288
WIRE 1104 352 624 352
WIRE 240 416 240 352
WIRE 624 432 624 352
WIRE 1408 432 1408 384
WIRE 352 448 352 416
WIRE 240 528 240 496
WIRE 624 544 624 512
WIRE 240 688 240 608
WIRE 624 688 624 624
WIRE 624 688 240 688
WIRE 672 688 624 688
WIRE 1168 688 1168 400
WIRE 1168 688 672 688
WIRE 672 720 672 688
FLAG 1408 432 0
FLAG 352 448 0
FLAG 976 80 0
FLAG 0 -176 0
FLAG 0 16 vee
FLAG 0 -368 vcc
FLAG -96 336 0
FLAG 672 -496 Vcc
FLAG 1472 256 vo
FLAG -64 128 vs
FLAG 672 720 Vee
DATAFLAG 1344 256 "round(1000*$)/1000"
DATAFLAG 720 688 ""
DATAFLAG 720 -464 ""
DATAFLAG 848 -192 "round(1000*$)/1000"
DATAFLAG 368 -240 "round(1000*$)/1000"
DATAFLAG 784 160 "round(1000*$)/1000"
DATAFLAG 752 352 "round(1000*$)/1000"
DATAFLAG 240 272 "round(1000*$)/1000"
DATAFLAG 144 128 "round(1000*$)/1000"
DATAFLAG -16 128 ""
SYMBOL res 128 112 R90
WINDOW 0 0 56 VBottom 2
WINDOW 3 32 56 VTop 2
SYMATTR InstName R1
SYMATTR Value 1k
SYMBOL res 480 -288 R180
WINDOW 0 36 76 Left 2
WINDOW 3 36 40 Left 2
SYMATTR InstName R2
SYMATTR Value 1k
SYMBOL res 256 512 R180
WINDOW 0 36 76 Left 2
WINDOW 3 36 40 Left 2
SYMATTR InstName R3
SYMATTR Value 4k7
SYMBOL res 256 624 R180
WINDOW 0 36 76 Left 2
WINDOW 3 36 40 Left 2
SYMATTR InstName R4
SYMATTR Value 4k7
SYMBOL res 640 304 R180
WINDOW 0 36 76 Left 2
WINDOW 3 36 40 Left 2
SYMATTR InstName R5
SYMATTR Value 680
SYMBOL res 640 528 R180
WINDOW 0 36 76 Left 2
WINDOW 3 36 40 Left 2
SYMATTR InstName R6
SYMATTR Value 6k8
SYMBOL res 640 640 R180
WINDOW 0 36 76 Left 2
WINDOW 3 36 40 Left 2
SYMATTR InstName R7
SYMATTR Value 2k2
SYMBOL res 992 -304 R180
WINDOW 0 36 76 Left 2
WINDOW 3 36 40 Left 2
SYMATTR InstName R8
SYMATTR Value 2k2
SYMBOL res 992 32 R180
WINDOW 0 36 76 Left 2
WINDOW 3 36 40 Left 2
SYMATTR InstName R9
SYMATTR Value 6k8
SYMBOL res 992 -192 R180
WINDOW 0 36 76 Left 2
WINDOW 3 36 40 Left 2
SYMATTR InstName R10
SYMATTR Value 500
SYMBOL res 992 -80 R180
WINDOW 0 36 76 Left 2
WINDOW 3 36 40 Left 2
SYMATTR InstName R11
SYMATTR Value 500
SYMBOL res 1424 400 R180
WINDOW 0 36 76 Left 2
WINDOW 3 36 40 Left 2
SYMATTR InstName RL
SYMATTR Value 220
SYMBOL npn 176 80 R0
SYMATTR InstName Q1
SYMATTR Value BC547C
SYMBOL npn 1104 112 R0
SYMATTR InstName Q3
SYMATTR Value BC547C
SYMBOL pnp 688 -144 R180
SYMATTR InstName Q2
SYMATTR Value BC557C
SYMBOL pnp 1104 400 M180
SYMATTR InstName Q4
SYMATTR Value BC557C
SYMBOL polcap 336 352 R0
SYMATTR InstName C1
SYMATTR Value 100µ
SYMBOL polcap 752 -112 R0
SYMATTR InstName C2
SYMATTR Value 10µ
SYMBOL voltage -80 -336 R0
WINDOW 123 0 0 Left 0
WINDOW 39 0 0 Left 0
SYMATTR InstName V1
SYMATTR Value 10
SYMBOL voltage -80 -160 R0
WINDOW 3 24 44 Left 2
WINDOW 123 0 0 Left 0
WINDOW 39 0 0 Left 0
SYMATTR InstName V2
SYMATTR Value 10
SYMBOL Misc\\signal -96 176 R0
WINDOW 123 24 132 Left 2
WINDOW 39 0 0 Left 0
SYMATTR InstName V3
SYMATTR Value SINE(0 0.2 5K)
SYMATTR Value2 AC 0.2
TEXT -130 860 Left 2 !.op
